data_1078_K
_audit_creation_method         'generated by CrystalMaker X for macOS'
_cell_length_a                   4.996500
_cell_length_b                   4.996500
_cell_length_c                   5.454600
_cell_angle_alpha               90.000000
_cell_angle_beta                90.000000
_cell_angle_gamma              120.000000

_symmetry_space_group_name_H-M     'P 62 2 2'

loop_
_symmetry_equiv_pos_as_xyz
'+x,+y,+z'
'-y,+x-y,2/3+z'
'-x+y,-x,1/3+z'
'-x,-y,+z'
'+y,-x+y,2/3+z'
'+x-y,+x,1/3+z'
'+y,+x,2/3-z'
'+x-y,-y,-z'
'-x,-x+y,1/3-z'
'-y,-x,2/3-z'
'-x+y,+y,-z'
'+x,+x-y,1/3-z'

loop_
_atom_site_label
_atom_site_type_symbol
_atom_site_occupancy
_atom_site_fract_x
_atom_site_fract_y
_atom_site_fract_z
 O  O 1.0  0.415699988604  0.207800000906  0.166666671634
 Si  Si 1.0  0.5  0.0  0.0

